%chk=Test001.chk
# XYG3(full)/6-311+G(3df,2p) sp scf=tight geom=checkpoint

Test for geom=checkpoint 
==----------------------------------------------------------------------------==
  E(B3LYP)    =     -56.58684411 A.U.    E(XYG3)     =     -56.55573650 A.U.
==----------------------------------------------------------------------------==

0 1
 

